data_image0
_chemical_formula_structural       WSSeWSSeWSSeWSSeWSSe
_chemical_formula_sum              "W5 S5 Se5"
_cell_length_a       16.5997
_cell_length_b       3.31993
_cell_length_c       6.86859
_cell_angle_alpha    90
_cell_angle_beta     90
_cell_angle_gamma    120

_space_group_name_H-M_alt    "P 1"
_space_group_IT_number       1

loop_
  _space_group_symop_operation_xyz
  'x, y, z'

loop_
  _atom_site_type_symbol
  _atom_site_label
  _atom_site_symmetry_multiplicity
  _atom_site_fract_x
  _atom_site_fract_y
  _atom_site_fract_z
  _atom_site_occupancy
  W   W1        1.0  0.13333  0.33333  0.50000  1.0000
  S   S1        1.0  0.06667  0.66667  0.74200  1.0000
  Se  Se1       1.0  0.06667  0.66667  0.25800  1.0000
  W   W2        1.0  0.33333  0.33333  0.50000  1.0000
  S   S2        1.0  0.26667  0.66667  0.74200  1.0000
  Se  Se2       1.0  0.26667  0.66667  0.25800  1.0000
  W   W3        1.0  0.53333  0.33333  0.50000  1.0000
  S   S3        1.0  0.46667  0.66667  0.74200  1.0000
  Se  Se3       1.0  0.46667  0.66667  0.25800  1.0000
  W   W4        1.0  0.73333  0.33333  0.50000  1.0000
  S   S4        1.0  0.66667  0.66667  0.74200  1.0000
  Se  Se4       1.0  0.66667  0.66667  0.25800  1.0000
  W   W5        1.0  0.93333  0.33333  0.50000  1.0000
  S   S5        1.0  0.86667  0.66667  0.74200  1.0000
  Se  Se5       1.0  0.86667  0.66667  0.25800  1.0000
